/*--------------------------------*- C++ -*----------------------------------*\   
| =========                 |                                                 |    
| \\      /  F ield         | OpenFOAM: The Open Source CFD Toolbox           |  
|  \\    /   O peration     | Version:  v2306                                 |  
|   \\  /    A nd           | Website:  www.openfoam.com                      |  
|    \\/     M anipulation  |                                                 |  
\*---------------------------------------------------------------------------*/   
FoamFile                                                                           
{                                                                                  
    version     2.0;                                                               
    format      ascii;                                                             
    class       dictionary;                                                        
    object      snappyHexMeshDict;                                                 
}                                                                                  
// * * * * * * * * * * * * * * * * * * * * * * * * * * * * * * * * * * * * * //    
                                                                                   
castellatedMesh    true;                                                      
snap               true;                                                      
addLayers          false;                                                       
                                                                                   
geometry                                                                           
{                                                                                  
   wing
   {                                                                               
       type    triSurfaceMesh;   
       file    "naca0012_0.stl";                                                  
//       name    wing;                                                               
   }                                                                               
                                                                                   
                                                                               
}                                                                                  
                                                                                   
castellatedMeshControls                                                            
{                                                                                  
   maxLocalCells           1e5;                                                    
   maxGlobalCells          2e6;                                                    
   minRefinementCells      10;                                                     
   nCellsBetweenLevels     5;                                                      
                                                                                   
   features                                                                        
   (                                                                               
   );                                                                              
                                                                                   
   refinementSurfaces                                                              
   {
   	wing
        {
            // Surface-wise min and max refinement level
            level (0 0);

            // Optional specification of patch type (default is wall). No
            // constraint types (cyclic, symmetry) etc. are allowed.
            patchInfo
            {
                type        wall;
            }
        }                                                                               
   }                                                                               
                                                                                   
   resolveFeatureAngle     15;                                                     
                                                                                   
   refinementRegions                                                               
   {                                                                               
                                                                                   
   }                                                                               
                                                                                   
   locationInMesh (-.74999 .74999 -0.499);                                         
                                                                                   
   allowFreeStandingZoneFaces  true;                                              
}                                                                                  
                                                                                   
snapControls                                                                       
{                                                                                  
   nSmoothPatch                3;                                                  
   tolerance                   1.0;                                                
   nSolveIter                  30;                                                 
   nRelaxIter                  5;                                                  
                                                                                   
   // Feature snapping                                                             
       nFeatureSnapIter        10;                                                 
       implicitFeatureSnap     false;                                              
       explicitFeatureSnap     true;                                               
       multiRegionFeatureSnap  false;                                              
}                                                                                  
                                                                                   
addLayersControls                                                                  
{                                                                                  
   meshShrinker                displacementMotionSolver;                           
                                                                                   
   solver                      displacementLaplacian;                              
                                                                                   
   displacementLaplacianCoeffs                                                     
   {                                                                               
       diffusivity             quadratic inverseDistance 1(wall);                  
   }                                                                               
                                                                                   
   layers                                                                          
   {                                                                               
       wing                                                                        
       {                                                                           
           nSurfaceLayers      5;                                                  
       }                                                                           
   }                                                                               
                                                                                   
   relativeSizes               false;                                              
   expansionRatio              1.2;                                                
   firstLayerThickness         0.00022308428424291427; 
   minThickness                1e-12;                                              
                                                                                   
   nGrow                       0;                                                  
                                                                                   
   featureAngle                150;                                                
                                                                                   
   nSmoothThickness            10;                                                 
                                                                                   
   maxFaceThicknessRatio       0.5;                                                
                                                                                   
   nBufferCellsNoExtrude       0;                                                  
                                                                                   
   nLayerIter                  50;                                                 
                                                                                   
   nRelaxIter                  5;                                                  
}                                                                                  
                                                                                   
meshQualityControls                                                                
{                                                                                  
   maxNonOrtho                 180;                                            
   maxBoundarySkewness         20;                                             
   maxInternalSkewness         4;                                              
   maxConcave                  180;                                            
   minVol                      1e-30;                                          
   minTetQuality               -1e30;                                          
   minArea                     -1;                                             
   minTwist                    -1;                                             
   minDeterminant              -1;                                             
   minFaceWeight               -1;                                             
   minVolRatio                 -1;                                             
   minTriangleTwist            -1;                                             
                                                                                   
   // Advanced settings                                                            
   nSmoothScale                4;                                                  
   errorReduction              0.75;                                               
}                                                                                  
                                                                                   
mergeTolerance 1e-6;                                                               
                                                                                   
// ************************************************************************* //    
