/*--------------------------------*- C++ -*----------------------------------*\   
| =========                 |                                                 |    
| \\      /  F ield         | OpenFOAM: The Open Source CFD Toolbox           |  
|  \\    /   O peration     | Version:  v2206                                 |  
|   \\  /    A nd           | Website:  www.openfoam.com                      |  
|    \\/     M anipulation  |                                                 |  
\*---------------------------------------------------------------------------*/   
FoamFile                                                                           
{                                                                                  
    version     2.0;                                                               
    format      ascii;                                                             
    class       dictionary;                                                        
    object      snappyHexMeshDict;                                                 
}                                                                                  
// * * * * * * * * * * * * * * * * * * * * * * * * * * * * * * * * * * * * * //    
                                                                                   
castellatedMesh    false;                                                      
snap               false;                                                      
addLayers          true;                                                       
                                                                                   
geometry                                                                           
{                                                                                  
   naca0012_0.stl 
   {                                                                               
       type    triSurfaceMesh;                                                     
       name    wing;                                                               
   }                                                                               
                                                                                   
   refinementBox5                                                                  
   {                                                                               
       type    box;                                                                
       min     (-0.35 -0.3 -0.5);                                                 
       max     ( 0.85  0.3 -0.49375); 
                                                                                   
   }                                                                               
   refinementBox4                                                                  
   {                                                                               
       type    box;                                                                
       min     (-0.5 -0.5 -0.5);                                                   
       max     ( 2    0.5 -0.49375); 
   }                                                                               
                                                                                   
   refinementBox3                                                                  
   {                                                                               
       type    box;                                                                
       min     (-1 -1 -0.5);                                                       
       max     ( 5  1 -0.49375); 
   }                                                                               
                                                                                   
   refinementBox2                                                                  
   {                                                                               
       type    box;                                                                
       min     (-2  -2 -0.5);                                                      
       max     ( 10  2 -0.49375); 
   }                                                                               
                                                                                   
   refinementBox1                                                                  
   {                                                                               
       type    box;                                                                
       min     (-5  -4 -0.5);                                                      
       max     ( 20  4 -0.49375); 
   }                                                                               
}                                                                                  
                                                                                   
castellatedMeshControls                                                            
{                                                                                  
   maxLocalCells           1e5;                                                    
   maxGlobalCells          2e6;                                                    
   minRefinementCells      10;                                                     
   nCellsBetweenLevels     5;                                                      
                                                                                   
   features                                                                        
   (                                                                               
   );                                                                              
                                                                                   
   refinementSurfaces                                                              
   {                                                                               
   }                                                                               
                                                                                   
   resolveFeatureAngle     15;                                                     
                                                                                   
   refinementRegions                                                               
   {                                                                               
                                                                                   
   }                                                                               
                                                                                   
   locationInMesh (-7.4999 7.4999 -0.499);                                         
                                                                                   
   allowFreeStandingZoneFaces  false;                                              
}                                                                                  
                                                                                   
snapControls                                                                       
{                                                                                  
   nSmoothPatch                3;                                                  
   tolerance                   1.0;                                                
   nSolveIter                  30;                                                 
   nRelaxIter                  5;                                                  
                                                                                   
   // Feature snapping                                                             
       nFeatureSnapIter        10;                                                 
       implicitFeatureSnap     false;                                              
       explicitFeatureSnap     true;                                               
       multiRegionFeatureSnap  false;                                              
}                                                                                  
                                                                                   
addLayersControls                                                                  
{                                                                                  
   meshShrinker                displacementMotionSolver;                           
                                                                                   
   solver                      displacementLaplacian;                              
                                                                                   
   displacementLaplacianCoeffs                                                     
   {                                                                               
       diffusivity             quadratic inverseDistance 1(wall);                  
   }                                                                               
                                                                                   
   layers                                                                          
   {                                                                               
       wing                                                                        
       {                                                                           
           nSurfaceLayers      5;                                                  
       }                                                                           
   }                                                                               
                                                                                   
   relativeSizes               false;                                              
   expansionRatio              1.2;                                                
   firstLayerThickness         0.00022308428424291427; 
   minThickness                1e-12;                                              
                                                                                   
   nGrow                       0;                                                  
                                                                                   
   featureAngle                150;                                                
                                                                                   
   nSmoothThickness            10;                                                 
                                                                                   
   maxFaceThicknessRatio       0.5;                                                
                                                                                   
   nBufferCellsNoExtrude       0;                                                  
                                                                                   
   nLayerIter                  50;                                                 
                                                                                   
   nRelaxIter                  5;                                                  
}                                                                                  
                                                                                   
meshQualityControls                                                                
{                                                                                  
   maxNonOrtho                 180;                                            
   maxBoundarySkewness         20;                                             
   maxInternalSkewness         4;                                              
   maxConcave                  180;                                            
   minVol                      1e-30;                                          
   minTetQuality               -1e30;                                          
   minArea                     -1;                                             
   minTwist                    -1;                                             
   minDeterminant              -1;                                             
   minFaceWeight               -1;                                             
   minVolRatio                 -1;                                             
   minTriangleTwist            -1;                                             
                                                                                   
   // Advanced settings                                                            
   nSmoothScale                4;                                                  
   errorReduction              0.75;                                               
}                                                                                  
                                                                                   
mergeTolerance 1e-6;                                                               
                                                                                   
// ************************************************************************* //    
